<?xml version="1.0" encoding="UTF-8"?>
<!-- Weighted demand (ADR-007) + GUI imgFile from Visualize/images/ -->
<routes xmlns:xsi="http://www.w3.org/2001/XMLSchema-instance" xsi:noNamespaceSchemaLocation="http://sumo.dlr.de/xsd/routes_file.xsd">

    <!-- Loại xe + sprite PNG (đường dẫn tương đối so với sumocfg) -->
    <vType id="motorcycle" vClass="motorcycle" guiShape="motorcycle" length="2.0" width="0.9" maxSpeed="16.7" accel="3.0" decel="5.0" sigma="0.5" minGap="0.5" speedFactor="1.1" impatience="0.4" lcStrategic="1.2" lcSpeedGain="1.2" lcKeepRight="0.5" imgFile="images/bike_bg.png"/>
    <vType id="car" vClass="passenger" guiShape="passenger/sedan" length="4.5" width="2.2" maxSpeed="13.9" accel="2.5" decel="4.5" sigma="0.5" minGap="2.5" imgFile="images/car_final.png"/>
    <vType id="bus" vClass="bus" guiShape="bus" length="12.0" width="2.8" maxSpeed="11.0" accel="1.5" decel="3.5" sigma="0.5" minGap="3.0" imgFile="images/bus_bg.png"/>
    <vType id="truck" vClass="truck" guiShape="truck" length="7.1" width="2.4" maxSpeed="11.1" accel="1.2" decel="3.0" sigma="0.5" minGap="3.0" imgFile="images/truck_bg.png"/>
    <vType id="container" vClass="trailer" guiShape="truck/semitrailer" length="16.5" width="2.5" maxSpeed="10.0" accel="0.8" decel="2.5" sigma="0.5" minGap="3.5" imgFile="images/tractor_head.png">
        <param key="locomotiveLength" value="4.0"/>
        <param key="carriageLength" value="12.0"/>
        <param key="carriageGap" value="0.5"/>
        <param key="carriageImages" value="images/trailer_box.png"/>
    </vType>
    <vType id="ambulance" vClass="emergency" guiShape="emergency" length="5.5" width="2.2" maxSpeed="18.0" accel="3.0" decel="5.0" sigma="0.3" minGap="2.0" imgFile="images/ambulance_bg.png"/>
    <vType id="police" vClass="authority" guiShape="police" length="5.0" width="2.2" maxSpeed="19.0" accel="3.5" decel="5.5" sigma="0.3" minGap="2.0" imgFile="images/police_bg.png"/>
    <vType id="firetruck" vClass="emergency" guiShape="firebrigade" length="8.0" width="2.5" maxSpeed="16.0" accel="2.5" decel="4.0" sigma="0.4" minGap="3.0" imgFile="images/firetruck_bg.png"/>

    <!-- corridor ns_w: N1J3 -> J1S1 -->
    <flow id="ns_w_motorcycle" type="motorcycle" from="N1J3" to="J1S1" begin="0" end="3600" vehsPerHour="170"/>
    <flow id="ns_w_car" type="car" from="N1J3" to="J1S1" begin="0" end="3600" vehsPerHour="24"/>
    <flow id="ns_w_bus" type="bus" from="N1J3" to="J1S1" begin="0" end="3600" vehsPerHour="4"/>
    <flow id="ns_w_truck" type="truck" from="N1J3" to="J1S1" begin="0" end="3600" vehsPerHour="2"/>
    <flow id="ns_w_ambulance" type="ambulance" from="N1J3" to="J1S1" begin="0" end="3600" vehsPerHour="1"/>
    <flow id="ns_w_police" type="police" from="N1J3" to="J1S1" begin="0" end="3600" vehsPerHour="1"/>
    <flow id="ns_w_firetruck" type="firetruck" from="N1J3" to="J1S1" begin="0" end="3600" vehsPerHour="1"/>
    <flow id="ns_w_container" type="container" from="N1J3" to="J1S1" begin="0" end="3600" vehsPerHour="1"/>

    <!-- corridor sn_w: S1J1 -> J3N1 -->
    <flow id="sn_w_motorcycle" type="motorcycle" from="S1J1" to="J3N1" begin="0" end="3600" vehsPerHour="170"/>
    <flow id="sn_w_car" type="car" from="S1J1" to="J3N1" begin="0" end="3600" vehsPerHour="24"/>
    <flow id="sn_w_bus" type="bus" from="S1J1" to="J3N1" begin="0" end="3600" vehsPerHour="4"/>
    <flow id="sn_w_truck" type="truck" from="S1J1" to="J3N1" begin="0" end="3600" vehsPerHour="2"/>
    <flow id="sn_w_ambulance" type="ambulance" from="S1J1" to="J3N1" begin="0" end="3600" vehsPerHour="1"/>
    <flow id="sn_w_police" type="police" from="S1J1" to="J3N1" begin="0" end="3600" vehsPerHour="1"/>
    <flow id="sn_w_firetruck" type="firetruck" from="S1J1" to="J3N1" begin="0" end="3600" vehsPerHour="1"/>
    <flow id="sn_w_container" type="container" from="S1J1" to="J3N1" begin="0" end="3600" vehsPerHour="1"/>

    <!-- corridor ns_e: N2J4 -> J2S2 -->
    <flow id="ns_e_motorcycle" type="motorcycle" from="N2J4" to="J2S2" begin="0" end="3600" vehsPerHour="170"/>
    <flow id="ns_e_car" type="car" from="N2J4" to="J2S2" begin="0" end="3600" vehsPerHour="24"/>
    <flow id="ns_e_bus" type="bus" from="N2J4" to="J2S2" begin="0" end="3600" vehsPerHour="4"/>
    <flow id="ns_e_truck" type="truck" from="N2J4" to="J2S2" begin="0" end="3600" vehsPerHour="2"/>
    <flow id="ns_e_ambulance" type="ambulance" from="N2J4" to="J2S2" begin="0" end="3600" vehsPerHour="1"/>
    <flow id="ns_e_police" type="police" from="N2J4" to="J2S2" begin="0" end="3600" vehsPerHour="1"/>
    <flow id="ns_e_firetruck" type="firetruck" from="N2J4" to="J2S2" begin="0" end="3600" vehsPerHour="1"/>
    <flow id="ns_e_container" type="container" from="N2J4" to="J2S2" begin="0" end="3600" vehsPerHour="1"/>

    <!-- corridor sn_e: S2J2 -> J4N2 -->
    <flow id="sn_e_motorcycle" type="motorcycle" from="S2J2" to="J4N2" begin="0" end="3600" vehsPerHour="170"/>
    <flow id="sn_e_car" type="car" from="S2J2" to="J4N2" begin="0" end="3600" vehsPerHour="24"/>
    <flow id="sn_e_bus" type="bus" from="S2J2" to="J4N2" begin="0" end="3600" vehsPerHour="4"/>
    <flow id="sn_e_truck" type="truck" from="S2J2" to="J4N2" begin="0" end="3600" vehsPerHour="2"/>
    <flow id="sn_e_ambulance" type="ambulance" from="S2J2" to="J4N2" begin="0" end="3600" vehsPerHour="1"/>
    <flow id="sn_e_police" type="police" from="S2J2" to="J4N2" begin="0" end="3600" vehsPerHour="1"/>
    <flow id="sn_e_firetruck" type="firetruck" from="S2J2" to="J4N2" begin="0" end="3600" vehsPerHour="1"/>
    <flow id="sn_e_container" type="container" from="S2J2" to="J4N2" begin="0" end="3600" vehsPerHour="1"/>

    <!-- corridor we_s: W1J1 -> J2E1 -->
    <flow id="we_s_motorcycle" type="motorcycle" from="W1J1" to="J2E1" begin="0" end="3600" vehsPerHour="170"/>
    <flow id="we_s_car" type="car" from="W1J1" to="J2E1" begin="0" end="3600" vehsPerHour="24"/>
    <flow id="we_s_bus" type="bus" from="W1J1" to="J2E1" begin="0" end="3600" vehsPerHour="4"/>
    <flow id="we_s_truck" type="truck" from="W1J1" to="J2E1" begin="0" end="3600" vehsPerHour="2"/>
    <flow id="we_s_ambulance" type="ambulance" from="W1J1" to="J2E1" begin="0" end="3600" vehsPerHour="1"/>
    <flow id="we_s_police" type="police" from="W1J1" to="J2E1" begin="0" end="3600" vehsPerHour="1"/>
    <flow id="we_s_firetruck" type="firetruck" from="W1J1" to="J2E1" begin="0" end="3600" vehsPerHour="1"/>
    <flow id="we_s_container" type="container" from="W1J1" to="J2E1" begin="0" end="3600" vehsPerHour="1"/>

    <!-- corridor ew_s: E1J2 -> J1W1 -->
    <flow id="ew_s_motorcycle" type="motorcycle" from="E1J2" to="J1W1" begin="0" end="3600" vehsPerHour="170"/>
    <flow id="ew_s_car" type="car" from="E1J2" to="J1W1" begin="0" end="3600" vehsPerHour="24"/>
    <flow id="ew_s_bus" type="bus" from="E1J2" to="J1W1" begin="0" end="3600" vehsPerHour="4"/>
    <flow id="ew_s_truck" type="truck" from="E1J2" to="J1W1" begin="0" end="3600" vehsPerHour="2"/>
    <flow id="ew_s_ambulance" type="ambulance" from="E1J2" to="J1W1" begin="0" end="3600" vehsPerHour="1"/>
    <flow id="ew_s_police" type="police" from="E1J2" to="J1W1" begin="0" end="3600" vehsPerHour="1"/>
    <flow id="ew_s_firetruck" type="firetruck" from="E1J2" to="J1W1" begin="0" end="3600" vehsPerHour="1"/>
    <flow id="ew_s_container" type="container" from="E1J2" to="J1W1" begin="0" end="3600" vehsPerHour="1"/>

    <!-- corridor we_n: W2J3 -> J4E2 -->
    <flow id="we_n_motorcycle" type="motorcycle" from="W2J3" to="J4E2" begin="0" end="3600" vehsPerHour="170"/>
    <flow id="we_n_car" type="car" from="W2J3" to="J4E2" begin="0" end="3600" vehsPerHour="24"/>
    <flow id="we_n_bus" type="bus" from="W2J3" to="J4E2" begin="0" end="3600" vehsPerHour="4"/>
    <flow id="we_n_truck" type="truck" from="W2J3" to="J4E2" begin="0" end="3600" vehsPerHour="2"/>
    <flow id="we_n_ambulance" type="ambulance" from="W2J3" to="J4E2" begin="0" end="3600" vehsPerHour="1"/>
    <flow id="we_n_police" type="police" from="W2J3" to="J4E2" begin="0" end="3600" vehsPerHour="1"/>
    <flow id="we_n_firetruck" type="firetruck" from="W2J3" to="J4E2" begin="0" end="3600" vehsPerHour="1"/>
    <flow id="we_n_container" type="container" from="W2J3" to="J4E2" begin="0" end="3600" vehsPerHour="1"/>

    <!-- corridor ew_n: E2J4 -> J3W2 -->
    <flow id="ew_n_motorcycle" type="motorcycle" from="E2J4" to="J3W2" begin="0" end="3600" vehsPerHour="170"/>
    <flow id="ew_n_car" type="car" from="E2J4" to="J3W2" begin="0" end="3600" vehsPerHour="24"/>
    <flow id="ew_n_bus" type="bus" from="E2J4" to="J3W2" begin="0" end="3600" vehsPerHour="4"/>
    <flow id="ew_n_truck" type="truck" from="E2J4" to="J3W2" begin="0" end="3600" vehsPerHour="2"/>
    <flow id="ew_n_ambulance" type="ambulance" from="E2J4" to="J3W2" begin="0" end="3600" vehsPerHour="1"/>
    <flow id="ew_n_police" type="police" from="E2J4" to="J3W2" begin="0" end="3600" vehsPerHour="1"/>
    <flow id="ew_n_firetruck" type="firetruck" from="E2J4" to="J3W2" begin="0" end="3600" vehsPerHour="1"/>
    <flow id="ew_n_container" type="container" from="E2J4" to="J3W2" begin="0" end="3600" vehsPerHour="1"/>

    <!-- light diagonal flows -->
    <flow id="x1" type="car" from="N1J3" to="J2E1" begin="0" end="3600" vehsPerHour="5"/>
    <flow id="x2" type="motorcycle" from="S1J1" to="J3W2" begin="0" end="3600" vehsPerHour="5"/>
    <flow id="x3" type="motorcycle" from="W1J1" to="J4N2" begin="0" end="3600" vehsPerHour="5"/>
    <flow id="x4" type="car" from="E1J2" to="J1S1" begin="0" end="3600" vehsPerHour="5"/>
    <flow id="x5" type="motorcycle" from="N2J4" to="J1W1" begin="0" end="3600" vehsPerHour="5"/>
    <flow id="x6" type="car" from="S2J2" to="J4E2" begin="0" end="3600" vehsPerHour="5"/>
    <flow id="x7" type="motorcycle" from="W2J3" to="J2S2" begin="0" end="3600" vehsPerHour="5"/>
    <flow id="x8" type="bus" from="E2J4" to="J3N1" begin="0" end="3600" vehsPerHour="5"/>
</routes>
