<?xml version="1.0" encoding="UTF-8"?>

<!-- generated on 2026-07-22T01:31:46.967462+07:00 by Eclipse SUMO netconvert 1.27.1
<netconvertConfiguration xmlns:xsi="http://www.w3.org/2001/XMLSchema-instance" xsi:noNamespaceSchemaLocation="http://sumo.dlr.de/xsd/netconvertConfiguration.xsd">

    <input>
        <node-files value="D:\Giao_trinh_dai_hoc\K2_N4\TTTN\Smart_Traffic\Smart_Data_Models\Visualize\Visualize\intersection.nod.xml"/>
        <edge-files value="D:\Giao_trinh_dai_hoc\K2_N4\TTTN\Smart_Traffic\Smart_Data_Models\Visualize\Visualize\intersection.edg.xml"/>
    </input>

    <output>
        <output-file value="D:\Giao_trinh_dai_hoc\K2_N4\TTTN\Smart_Traffic\Smart_Data_Models\Visualize\Visualize\intersection.net.xml"/>
    </output>

    <junctions>
        <no-turnarounds.except-deadend value="true"/>
    </junctions>

</netconvertConfiguration>
-->

<net version="1.20" junctionCornerDetail="5" limitTurnSpeed="5.50" xmlns:xsi="http://www.w3.org/2001/XMLSchema-instance" xsi:noNamespaceSchemaLocation="http://sumo.dlr.de/xsd/net_file.xsd">

    <location netOffset="300.00,300.00" convBoundary="0.00,0.00,1100.00,1100.00" origBoundary="-300.00,-300.00,800.00,800.00" projParameter="!"/>

    <edge id=":E1_0" function="internal">
        <lane id=":E1_0_0" index="0" speed="3.65" length="4.67" shape="1100.00,298.40 1101.20,299.20 1101.60,300.00 1101.20,300.80 1100.00,301.60"/>
    </edge>
    <edge id=":E2_0" function="internal">
        <lane id=":E2_0_0" index="0" speed="3.65" length="4.67" shape="1100.00,798.40 1101.20,799.20 1101.60,800.00 1101.20,800.80 1100.00,801.60"/>
    </edge>
    <edge id=":J1_0" function="internal">
        <lane id=":J1_0_0" index="0" speed="6.51" length="9.03" shape="292.00,313.60 291.65,311.15 290.60,309.40 288.85,308.35 286.40,308.00"/>
    </edge>
    <edge id=":J1_1" function="internal">
        <lane id=":J1_1_0" index="0" speed="13.90" length="27.20" shape="292.00,313.60 292.00,286.40"/>
        <lane id=":J1_1_1" index="1" speed="13.90" length="27.20" shape="295.20,313.60 295.20,286.40"/>
        <lane id=":J1_1_2" index="2" speed="13.90" length="27.20" shape="298.40,313.60 298.40,286.40"/>
    </edge>
    <edge id=":J1_4" function="internal">
        <lane id=":J1_4_0" index="0" speed="10.36" length="5.01" shape="298.40,313.60 299.11,308.64"/>
    </edge>
    <edge id=":J1_20" function="internal">
        <lane id=":J1_20_0" index="0" speed="10.36" length="19.50" shape="299.11,308.64 299.35,306.95 302.20,302.20 306.95,299.35 313.60,298.40"/>
    </edge>
    <edge id=":J1_5" function="internal">
        <lane id=":J1_5_0" index="0" speed="6.51" length="9.03" shape="313.60,308.00 311.15,308.35 309.40,309.40 308.35,311.15 308.00,313.60"/>
    </edge>
    <edge id=":J1_6" function="internal">
        <lane id=":J1_6_0" index="0" speed="13.90" length="27.20" shape="313.60,308.00 286.40,308.00"/>
        <lane id=":J1_6_1" index="1" speed="13.90" length="27.20" shape="313.60,304.80 286.40,304.80"/>
        <lane id=":J1_6_2" index="2" speed="13.90" length="27.20" shape="313.60,301.60 286.40,301.60"/>
    </edge>
    <edge id=":J1_9" function="internal">
        <lane id=":J1_9_0" index="0" speed="10.36" length="5.01" shape="313.60,301.60 308.64,300.89"/>
    </edge>
    <edge id=":J1_21" function="internal">
        <lane id=":J1_21_0" index="0" speed="10.36" length="19.50" shape="308.64,300.89 306.95,300.65 302.20,297.80 299.35,293.05 298.40,286.40"/>
    </edge>
    <edge id=":J1_10" function="internal">
        <lane id=":J1_10_0" index="0" speed="6.51" length="9.03" shape="308.00,286.40 308.35,288.85 309.40,290.60 311.15,291.65 313.60,292.00"/>
    </edge>
    <edge id=":J1_11" function="internal">
        <lane id=":J1_11_0" index="0" speed="13.90" length="27.20" shape="308.00,286.40 308.00,313.60"/>
        <lane id=":J1_11_1" index="1" speed="13.90" length="27.20" shape="304.80,286.40 304.80,313.60"/>
        <lane id=":J1_11_2" index="2" speed="13.90" length="27.20" shape="301.60,286.40 301.60,313.60"/>
    </edge>
    <edge id=":J1_14" function="internal">
        <lane id=":J1_14_0" index="0" speed="10.36" length="5.01" shape="301.60,286.40 300.89,291.36"/>
    </edge>
    <edge id=":J1_22" function="internal">
        <lane id=":J1_22_0" index="0" speed="10.36" length="19.50" shape="300.89,291.36 300.65,293.05 297.80,297.80 293.05,300.65 286.40,301.60"/>
    </edge>
    <edge id=":J1_15" function="internal">
        <lane id=":J1_15_0" index="0" speed="6.51" length="9.03" shape="286.40,292.00 288.85,291.65 290.60,290.60 291.65,288.85 292.00,286.40"/>
    </edge>
    <edge id=":J1_16" function="internal">
        <lane id=":J1_16_0" index="0" speed="13.90" length="27.20" shape="286.40,292.00 313.60,292.00"/>
        <lane id=":J1_16_1" index="1" speed="13.90" length="27.20" shape="286.40,295.20 313.60,295.20"/>
        <lane id=":J1_16_2" index="2" speed="13.90" length="27.20" shape="286.40,298.40 313.60,298.40"/>
    </edge>
    <edge id=":J1_19" function="internal">
        <lane id=":J1_19_0" index="0" speed="10.36" length="5.01" shape="286.40,298.40 291.36,299.11"/>
    </edge>
    <edge id=":J1_23" function="internal">
        <lane id=":J1_23_0" index="0" speed="10.36" length="19.50" shape="291.36,299.11 293.05,299.35 297.80,302.20 300.65,306.95 301.60,313.60"/>
    </edge>
    <edge id=":J2_0" function="internal">
        <lane id=":J2_0_0" index="0" speed="6.51" length="9.03" shape="792.00,313.60 791.65,311.15 790.60,309.40 788.85,308.35 786.40,308.00"/>
    </edge>
    <edge id=":J2_1" function="internal">
        <lane id=":J2_1_0" index="0" speed="13.90" length="27.20" shape="792.00,313.60 792.00,286.40"/>
        <lane id=":J2_1_1" index="1" speed="13.90" length="27.20" shape="795.20,313.60 795.20,286.40"/>
        <lane id=":J2_1_2" index="2" speed="13.90" length="27.20" shape="798.40,313.60 798.40,286.40"/>
    </edge>
    <edge id=":J2_4" function="internal">
        <lane id=":J2_4_0" index="0" speed="10.36" length="5.01" shape="798.40,313.60 799.11,308.64"/>
    </edge>
    <edge id=":J2_20" function="internal">
        <lane id=":J2_20_0" index="0" speed="10.36" length="19.50" shape="799.11,308.64 799.35,306.95 802.20,302.20 806.95,299.35 813.60,298.40"/>
    </edge>
    <edge id=":J2_5" function="internal">
        <lane id=":J2_5_0" index="0" speed="6.51" length="9.03" shape="813.60,308.00 811.15,308.35 809.40,309.40 808.35,311.15 808.00,313.60"/>
    </edge>
    <edge id=":J2_6" function="internal">
        <lane id=":J2_6_0" index="0" speed="13.90" length="27.20" shape="813.60,308.00 786.40,308.00"/>
        <lane id=":J2_6_1" index="1" speed="13.90" length="27.20" shape="813.60,304.80 786.40,304.80"/>
        <lane id=":J2_6_2" index="2" speed="13.90" length="27.20" shape="813.60,301.60 786.40,301.60"/>
    </edge>
    <edge id=":J2_9" function="internal">
        <lane id=":J2_9_0" index="0" speed="10.36" length="5.01" shape="813.60,301.60 808.64,300.89"/>
    </edge>
    <edge id=":J2_21" function="internal">
        <lane id=":J2_21_0" index="0" speed="10.36" length="19.50" shape="808.64,300.89 806.95,300.65 802.20,297.80 799.35,293.05 798.40,286.40"/>
    </edge>
    <edge id=":J2_10" function="internal">
        <lane id=":J2_10_0" index="0" speed="6.51" length="9.03" shape="808.00,286.40 808.35,288.85 809.40,290.60 811.15,291.65 813.60,292.00"/>
    </edge>
    <edge id=":J2_11" function="internal">
        <lane id=":J2_11_0" index="0" speed="13.90" length="27.20" shape="808.00,286.40 808.00,313.60"/>
        <lane id=":J2_11_1" index="1" speed="13.90" length="27.20" shape="804.80,286.40 804.80,313.60"/>
        <lane id=":J2_11_2" index="2" speed="13.90" length="27.20" shape="801.60,286.40 801.60,313.60"/>
    </edge>
    <edge id=":J2_14" function="internal">
        <lane id=":J2_14_0" index="0" speed="10.36" length="5.01" shape="801.60,286.40 800.89,291.36"/>
    </edge>
    <edge id=":J2_22" function="internal">
        <lane id=":J2_22_0" index="0" speed="10.36" length="19.50" shape="800.89,291.36 800.65,293.05 797.80,297.80 793.05,300.65 786.40,301.60"/>
    </edge>
    <edge id=":J2_15" function="internal">
        <lane id=":J2_15_0" index="0" speed="6.51" length="9.03" shape="786.40,292.00 788.85,291.65 790.60,290.60 791.65,288.85 792.00,286.40"/>
    </edge>
    <edge id=":J2_16" function="internal">
        <lane id=":J2_16_0" index="0" speed="13.90" length="27.20" shape="786.40,292.00 813.60,292.00"/>
        <lane id=":J2_16_1" index="1" speed="13.90" length="27.20" shape="786.40,295.20 813.60,295.20"/>
        <lane id=":J2_16_2" index="2" speed="13.90" length="27.20" shape="786.40,298.40 813.60,298.40"/>
    </edge>
    <edge id=":J2_19" function="internal">
        <lane id=":J2_19_0" index="0" speed="10.36" length="5.01" shape="786.40,298.40 791.36,299.11"/>
    </edge>
    <edge id=":J2_23" function="internal">
        <lane id=":J2_23_0" index="0" speed="10.36" length="19.50" shape="791.36,299.11 793.05,299.35 797.80,302.20 800.65,306.95 801.60,313.60"/>
    </edge>
    <edge id=":J3_0" function="internal">
        <lane id=":J3_0_0" index="0" speed="6.51" length="9.03" shape="292.00,813.60 291.65,811.15 290.60,809.40 288.85,808.35 286.40,808.00"/>
    </edge>
    <edge id=":J3_1" function="internal">
        <lane id=":J3_1_0" index="0" speed="13.90" length="27.20" shape="292.00,813.60 292.00,786.40"/>
        <lane id=":J3_1_1" index="1" speed="13.90" length="27.20" shape="295.20,813.60 295.20,786.40"/>
        <lane id=":J3_1_2" index="2" speed="13.90" length="27.20" shape="298.40,813.60 298.40,786.40"/>
    </edge>
    <edge id=":J3_4" function="internal">
        <lane id=":J3_4_0" index="0" speed="10.36" length="5.01" shape="298.40,813.60 299.11,808.64"/>
    </edge>
    <edge id=":J3_20" function="internal">
        <lane id=":J3_20_0" index="0" speed="10.36" length="19.50" shape="299.11,808.64 299.35,806.95 302.20,802.20 306.95,799.35 313.60,798.40"/>
    </edge>
    <edge id=":J3_5" function="internal">
        <lane id=":J3_5_0" index="0" speed="6.51" length="9.03" shape="313.60,808.00 311.15,808.35 309.40,809.40 308.35,811.15 308.00,813.60"/>
    </edge>
    <edge id=":J3_6" function="internal">
        <lane id=":J3_6_0" index="0" speed="13.90" length="27.20" shape="313.60,808.00 286.40,808.00"/>
        <lane id=":J3_6_1" index="1" speed="13.90" length="27.20" shape="313.60,804.80 286.40,804.80"/>
        <lane id=":J3_6_2" index="2" speed="13.90" length="27.20" shape="313.60,801.60 286.40,801.60"/>
    </edge>
    <edge id=":J3_9" function="internal">
        <lane id=":J3_9_0" index="0" speed="10.36" length="5.01" shape="313.60,801.60 308.64,800.89"/>
    </edge>
    <edge id=":J3_21" function="internal">
        <lane id=":J3_21_0" index="0" speed="10.36" length="19.50" shape="308.64,800.89 306.95,800.65 302.20,797.80 299.35,793.05 298.40,786.40"/>
    </edge>
    <edge id=":J3_10" function="internal">
        <lane id=":J3_10_0" index="0" speed="6.51" length="9.03" shape="308.00,786.40 308.35,788.85 309.40,790.60 311.15,791.65 313.60,792.00"/>
    </edge>
    <edge id=":J3_11" function="internal">
        <lane id=":J3_11_0" index="0" speed="13.90" length="27.20" shape="308.00,786.40 308.00,813.60"/>
        <lane id=":J3_11_1" index="1" speed="13.90" length="27.20" shape="304.80,786.40 304.80,813.60"/>
        <lane id=":J3_11_2" index="2" speed="13.90" length="27.20" shape="301.60,786.40 301.60,813.60"/>
    </edge>
    <edge id=":J3_14" function="internal">
        <lane id=":J3_14_0" index="0" speed="10.36" length="5.01" shape="301.60,786.40 300.89,791.36"/>
    </edge>
    <edge id=":J3_22" function="internal">
        <lane id=":J3_22_0" index="0" speed="10.36" length="19.50" shape="300.89,791.36 300.65,793.05 297.80,797.80 293.05,800.65 286.40,801.60"/>
    </edge>
    <edge id=":J3_15" function="internal">
        <lane id=":J3_15_0" index="0" speed="6.51" length="9.03" shape="286.40,792.00 288.85,791.65 290.60,790.60 291.65,788.85 292.00,786.40"/>
    </edge>
    <edge id=":J3_16" function="internal">
        <lane id=":J3_16_0" index="0" speed="13.90" length="27.20" shape="286.40,792.00 313.60,792.00"/>
        <lane id=":J3_16_1" index="1" speed="13.90" length="27.20" shape="286.40,795.20 313.60,795.20"/>
        <lane id=":J3_16_2" index="2" speed="13.90" length="27.20" shape="286.40,798.40 313.60,798.40"/>
    </edge>
    <edge id=":J3_19" function="internal">
        <lane id=":J3_19_0" index="0" speed="10.36" length="5.01" shape="286.40,798.40 291.36,799.11"/>
    </edge>
    <edge id=":J3_23" function="internal">
        <lane id=":J3_23_0" index="0" speed="10.36" length="19.50" shape="291.36,799.11 293.05,799.35 297.80,802.20 300.65,806.95 301.60,813.60"/>
    </edge>
    <edge id=":J4_0" function="internal">
        <lane id=":J4_0_0" index="0" speed="6.51" length="9.03" shape="792.00,813.60 791.65,811.15 790.60,809.40 788.85,808.35 786.40,808.00"/>
    </edge>
    <edge id=":J4_1" function="internal">
        <lane id=":J4_1_0" index="0" speed="13.90" length="27.20" shape="792.00,813.60 792.00,786.40"/>
        <lane id=":J4_1_1" index="1" speed="13.90" length="27.20" shape="795.20,813.60 795.20,786.40"/>
        <lane id=":J4_1_2" index="2" speed="13.90" length="27.20" shape="798.40,813.60 798.40,786.40"/>
    </edge>
    <edge id=":J4_4" function="internal">
        <lane id=":J4_4_0" index="0" speed="10.36" length="5.01" shape="798.40,813.60 799.11,808.64"/>
    </edge>
    <edge id=":J4_20" function="internal">
        <lane id=":J4_20_0" index="0" speed="10.36" length="19.50" shape="799.11,808.64 799.35,806.95 802.20,802.20 806.95,799.35 813.60,798.40"/>
    </edge>
    <edge id=":J4_5" function="internal">
        <lane id=":J4_5_0" index="0" speed="6.51" length="9.03" shape="813.60,808.00 811.15,808.35 809.40,809.40 808.35,811.15 808.00,813.60"/>
    </edge>
    <edge id=":J4_6" function="internal">
        <lane id=":J4_6_0" index="0" speed="13.90" length="27.20" shape="813.60,808.00 786.40,808.00"/>
        <lane id=":J4_6_1" index="1" speed="13.90" length="27.20" shape="813.60,804.80 786.40,804.80"/>
        <lane id=":J4_6_2" index="2" speed="13.90" length="27.20" shape="813.60,801.60 786.40,801.60"/>
    </edge>
    <edge id=":J4_9" function="internal">
        <lane id=":J4_9_0" index="0" speed="10.36" length="5.01" shape="813.60,801.60 808.64,800.89"/>
    </edge>
    <edge id=":J4_21" function="internal">
        <lane id=":J4_21_0" index="0" speed="10.36" length="19.50" shape="808.64,800.89 806.95,800.65 802.20,797.80 799.35,793.05 798.40,786.40"/>
    </edge>
    <edge id=":J4_10" function="internal">
        <lane id=":J4_10_0" index="0" speed="6.51" length="9.03" shape="808.00,786.40 808.35,788.85 809.40,790.60 811.15,791.65 813.60,792.00"/>
    </edge>
    <edge id=":J4_11" function="internal">
        <lane id=":J4_11_0" index="0" speed="13.90" length="27.20" shape="808.00,786.40 808.00,813.60"/>
        <lane id=":J4_11_1" index="1" speed="13.90" length="27.20" shape="804.80,786.40 804.80,813.60"/>
        <lane id=":J4_11_2" index="2" speed="13.90" length="27.20" shape="801.60,786.40 801.60,813.60"/>
    </edge>
    <edge id=":J4_14" function="internal">
        <lane id=":J4_14_0" index="0" speed="10.36" length="5.01" shape="801.60,786.40 800.89,791.36"/>
    </edge>
    <edge id=":J4_22" function="internal">
        <lane id=":J4_22_0" index="0" speed="10.36" length="19.50" shape="800.89,791.36 800.65,793.05 797.80,797.80 793.05,800.65 786.40,801.60"/>
    </edge>
    <edge id=":J4_15" function="internal">
        <lane id=":J4_15_0" index="0" speed="6.51" length="9.03" shape="786.40,792.00 788.85,791.65 790.60,790.60 791.65,788.85 792.00,786.40"/>
    </edge>
    <edge id=":J4_16" function="internal">
        <lane id=":J4_16_0" index="0" speed="13.90" length="27.20" shape="786.40,792.00 813.60,792.00"/>
        <lane id=":J4_16_1" index="1" speed="13.90" length="27.20" shape="786.40,795.20 813.60,795.20"/>
        <lane id=":J4_16_2" index="2" speed="13.90" length="27.20" shape="786.40,798.40 813.60,798.40"/>
    </edge>
    <edge id=":J4_19" function="internal">
        <lane id=":J4_19_0" index="0" speed="10.36" length="5.01" shape="786.40,798.40 791.36,799.11"/>
    </edge>
    <edge id=":J4_23" function="internal">
        <lane id=":J4_23_0" index="0" speed="10.36" length="19.50" shape="791.36,799.11 793.05,799.35 797.80,802.20 800.65,806.95 801.60,813.60"/>
    </edge>
    <edge id=":N1_0" function="internal">
        <lane id=":N1_0_0" index="0" speed="3.65" length="4.67" shape="301.60,1100.00 300.80,1101.20 300.00,1101.60 299.20,1101.20 298.40,1100.00"/>
    </edge>
    <edge id=":N2_0" function="internal">
        <lane id=":N2_0_0" index="0" speed="3.65" length="4.67" shape="801.60,1100.00 800.80,1101.20 800.00,1101.60 799.20,1101.20 798.40,1100.00"/>
    </edge>
    <edge id=":S1_0" function="internal">
        <lane id=":S1_0_0" index="0" speed="3.65" length="4.67" shape="298.40,0.00 299.20,-1.20 300.00,-1.60 300.80,-1.20 301.60,0.00"/>
    </edge>
    <edge id=":S2_0" function="internal">
        <lane id=":S2_0_0" index="0" speed="3.65" length="4.67" shape="798.40,0.00 799.20,-1.20 800.00,-1.60 800.80,-1.20 801.60,0.00"/>
    </edge>
    <edge id=":W1_0" function="internal">
        <lane id=":W1_0_0" index="0" speed="3.65" length="4.67" shape="0.00,301.60 -1.20,300.80 -1.60,300.00 -1.20,299.20 0.00,298.40"/>
    </edge>
    <edge id=":W2_0" function="internal">
        <lane id=":W2_0_0" index="0" speed="3.65" length="4.67" shape="0.00,801.60 -1.20,800.80 -1.60,800.00 -1.20,799.20 0.00,798.40"/>
    </edge>

    <edge id="E1J2" from="E1" to="J2" priority="-1">
        <lane id="E1J2_0" index="0" speed="13.90" length="286.40" shape="1100.00,308.00 813.60,308.00"/>
        <lane id="E1J2_1" index="1" speed="13.90" length="286.40" shape="1100.00,304.80 813.60,304.80"/>
        <lane id="E1J2_2" index="2" speed="13.90" length="286.40" shape="1100.00,301.60 813.60,301.60"/>
    </edge>
    <edge id="E2J4" from="E2" to="J4" priority="-1">
        <lane id="E2J4_0" index="0" speed="13.90" length="286.40" shape="1100.00,808.00 813.60,808.00"/>
        <lane id="E2J4_1" index="1" speed="13.90" length="286.40" shape="1100.00,804.80 813.60,804.80"/>
        <lane id="E2J4_2" index="2" speed="13.90" length="286.40" shape="1100.00,801.60 813.60,801.60"/>
    </edge>
    <edge id="J1J2" from="J1" to="J2" priority="-1">
        <lane id="J1J2_0" index="0" speed="13.90" length="472.80" shape="313.60,292.00 786.40,292.00"/>
        <lane id="J1J2_1" index="1" speed="13.90" length="472.80" shape="313.60,295.20 786.40,295.20"/>
        <lane id="J1J2_2" index="2" speed="13.90" length="472.80" shape="313.60,298.40 786.40,298.40"/>
    </edge>
    <edge id="J1J3" from="J1" to="J3" priority="-1">
        <lane id="J1J3_0" index="0" speed="13.90" length="472.80" shape="308.00,313.60 308.00,786.40"/>
        <lane id="J1J3_1" index="1" speed="13.90" length="472.80" shape="304.80,313.60 304.80,786.40"/>
        <lane id="J1J3_2" index="2" speed="13.90" length="472.80" shape="301.60,313.60 301.60,786.40"/>
    </edge>
    <edge id="J1S1" from="J1" to="S1" priority="-1">
        <lane id="J1S1_0" index="0" speed="13.90" length="286.40" shape="292.00,286.40 292.00,0.00"/>
        <lane id="J1S1_1" index="1" speed="13.90" length="286.40" shape="295.20,286.40 295.20,0.00"/>
        <lane id="J1S1_2" index="2" speed="13.90" length="286.40" shape="298.40,286.40 298.40,0.00"/>
    </edge>
    <edge id="J1W1" from="J1" to="W1" priority="-1">
        <lane id="J1W1_0" index="0" speed="13.90" length="286.40" shape="286.40,308.00 0.00,308.00"/>
        <lane id="J1W1_1" index="1" speed="13.90" length="286.40" shape="286.40,304.80 0.00,304.80"/>
        <lane id="J1W1_2" index="2" speed="13.90" length="286.40" shape="286.40,301.60 0.00,301.60"/>
    </edge>
    <edge id="J2E1" from="J2" to="E1" priority="-1">
        <lane id="J2E1_0" index="0" speed="13.90" length="286.40" shape="813.60,292.00 1100.00,292.00"/>
        <lane id="J2E1_1" index="1" speed="13.90" length="286.40" shape="813.60,295.20 1100.00,295.20"/>
        <lane id="J2E1_2" index="2" speed="13.90" length="286.40" shape="813.60,298.40 1100.00,298.40"/>
    </edge>
    <edge id="J2J1" from="J2" to="J1" priority="-1">
        <lane id="J2J1_0" index="0" speed="13.90" length="472.80" shape="786.40,308.00 313.60,308.00"/>
        <lane id="J2J1_1" index="1" speed="13.90" length="472.80" shape="786.40,304.80 313.60,304.80"/>
        <lane id="J2J1_2" index="2" speed="13.90" length="472.80" shape="786.40,301.60 313.60,301.60"/>
    </edge>
    <edge id="J2J4" from="J2" to="J4" priority="-1">
        <lane id="J2J4_0" index="0" speed="13.90" length="472.80" shape="808.00,313.60 808.00,786.40"/>
        <lane id="J2J4_1" index="1" speed="13.90" length="472.80" shape="804.80,313.60 804.80,786.40"/>
        <lane id="J2J4_2" index="2" speed="13.90" length="472.80" shape="801.60,313.60 801.60,786.40"/>
    </edge>
    <edge id="J2S2" from="J2" to="S2" priority="-1">
        <lane id="J2S2_0" index="0" speed="13.90" length="286.40" shape="792.00,286.40 792.00,0.00"/>
        <lane id="J2S2_1" index="1" speed="13.90" length="286.40" shape="795.20,286.40 795.20,0.00"/>
        <lane id="J2S2_2" index="2" speed="13.90" length="286.40" shape="798.40,286.40 798.40,0.00"/>
    </edge>
    <edge id="J3J1" from="J3" to="J1" priority="-1">
        <lane id="J3J1_0" index="0" speed="13.90" length="472.80" shape="292.00,786.40 292.00,313.60"/>
        <lane id="J3J1_1" index="1" speed="13.90" length="472.80" shape="295.20,786.40 295.20,313.60"/>
        <lane id="J3J1_2" index="2" speed="13.90" length="472.80" shape="298.40,786.40 298.40,313.60"/>
    </edge>
    <edge id="J3J4" from="J3" to="J4" priority="-1">
        <lane id="J3J4_0" index="0" speed="13.90" length="472.80" shape="313.60,792.00 786.40,792.00"/>
        <lane id="J3J4_1" index="1" speed="13.90" length="472.80" shape="313.60,795.20 786.40,795.20"/>
        <lane id="J3J4_2" index="2" speed="13.90" length="472.80" shape="313.60,798.40 786.40,798.40"/>
    </edge>
    <edge id="J3N1" from="J3" to="N1" priority="-1">
        <lane id="J3N1_0" index="0" speed="13.90" length="286.40" shape="308.00,813.60 308.00,1100.00"/>
        <lane id="J3N1_1" index="1" speed="13.90" length="286.40" shape="304.80,813.60 304.80,1100.00"/>
        <lane id="J3N1_2" index="2" speed="13.90" length="286.40" shape="301.60,813.60 301.60,1100.00"/>
    </edge>
    <edge id="J3W2" from="J3" to="W2" priority="-1">
        <lane id="J3W2_0" index="0" speed="13.90" length="286.40" shape="286.40,808.00 0.00,808.00"/>
        <lane id="J3W2_1" index="1" speed="13.90" length="286.40" shape="286.40,804.80 0.00,804.80"/>
        <lane id="J3W2_2" index="2" speed="13.90" length="286.40" shape="286.40,801.60 0.00,801.60"/>
    </edge>
    <edge id="J4E2" from="J4" to="E2" priority="-1">
        <lane id="J4E2_0" index="0" speed="13.90" length="286.40" shape="813.60,792.00 1100.00,792.00"/>
        <lane id="J4E2_1" index="1" speed="13.90" length="286.40" shape="813.60,795.20 1100.00,795.20"/>
        <lane id="J4E2_2" index="2" speed="13.90" length="286.40" shape="813.60,798.40 1100.00,798.40"/>
    </edge>
    <edge id="J4J2" from="J4" to="J2" priority="-1">
        <lane id="J4J2_0" index="0" speed="13.90" length="472.80" shape="792.00,786.40 792.00,313.60"/>
        <lane id="J4J2_1" index="1" speed="13.90" length="472.80" shape="795.20,786.40 795.20,313.60"/>
        <lane id="J4J2_2" index="2" speed="13.90" length="472.80" shape="798.40,786.40 798.40,313.60"/>
    </edge>
    <edge id="J4J3" from="J4" to="J3" priority="-1">
        <lane id="J4J3_0" index="0" speed="13.90" length="472.80" shape="786.40,808.00 313.60,808.00"/>
        <lane id="J4J3_1" index="1" speed="13.90" length="472.80" shape="786.40,804.80 313.60,804.80"/>
        <lane id="J4J3_2" index="2" speed="13.90" length="472.80" shape="786.40,801.60 313.60,801.60"/>
    </edge>
    <edge id="J4N2" from="J4" to="N2" priority="-1">
        <lane id="J4N2_0" index="0" speed="13.90" length="286.40" shape="808.00,813.60 808.00,1100.00"/>
        <lane id="J4N2_1" index="1" speed="13.90" length="286.40" shape="804.80,813.60 804.80,1100.00"/>
        <lane id="J4N2_2" index="2" speed="13.90" length="286.40" shape="801.60,813.60 801.60,1100.00"/>
    </edge>
    <edge id="N1J3" from="N1" to="J3" priority="-1">
        <lane id="N1J3_0" index="0" speed="13.90" length="286.40" shape="292.00,1100.00 292.00,813.60"/>
        <lane id="N1J3_1" index="1" speed="13.90" length="286.40" shape="295.20,1100.00 295.20,813.60"/>
        <lane id="N1J3_2" index="2" speed="13.90" length="286.40" shape="298.40,1100.00 298.40,813.60"/>
    </edge>
    <edge id="N2J4" from="N2" to="J4" priority="-1">
        <lane id="N2J4_0" index="0" speed="13.90" length="286.40" shape="792.00,1100.00 792.00,813.60"/>
        <lane id="N2J4_1" index="1" speed="13.90" length="286.40" shape="795.20,1100.00 795.20,813.60"/>
        <lane id="N2J4_2" index="2" speed="13.90" length="286.40" shape="798.40,1100.00 798.40,813.60"/>
    </edge>
    <edge id="S1J1" from="S1" to="J1" priority="-1">
        <lane id="S1J1_0" index="0" speed="13.90" length="286.40" shape="308.00,0.00 308.00,286.40"/>
        <lane id="S1J1_1" index="1" speed="13.90" length="286.40" shape="304.80,0.00 304.80,286.40"/>
        <lane id="S1J1_2" index="2" speed="13.90" length="286.40" shape="301.60,0.00 301.60,286.40"/>
    </edge>
    <edge id="S2J2" from="S2" to="J2" priority="-1">
        <lane id="S2J2_0" index="0" speed="13.90" length="286.40" shape="808.00,0.00 808.00,286.40"/>
        <lane id="S2J2_1" index="1" speed="13.90" length="286.40" shape="804.80,0.00 804.80,286.40"/>
        <lane id="S2J2_2" index="2" speed="13.90" length="286.40" shape="801.60,0.00 801.60,286.40"/>
    </edge>
    <edge id="W1J1" from="W1" to="J1" priority="-1">
        <lane id="W1J1_0" index="0" speed="13.90" length="286.40" shape="0.00,292.00 286.40,292.00"/>
        <lane id="W1J1_1" index="1" speed="13.90" length="286.40" shape="0.00,295.20 286.40,295.20"/>
        <lane id="W1J1_2" index="2" speed="13.90" length="286.40" shape="0.00,298.40 286.40,298.40"/>
    </edge>
    <edge id="W2J3" from="W2" to="J3" priority="-1">
        <lane id="W2J3_0" index="0" speed="13.90" length="286.40" shape="0.00,792.00 286.40,792.00"/>
        <lane id="W2J3_1" index="1" speed="13.90" length="286.40" shape="0.00,795.20 286.40,795.20"/>
        <lane id="W2J3_2" index="2" speed="13.90" length="286.40" shape="0.00,798.40 286.40,798.40"/>
    </edge>


    <tlLogic id="J1" type="static" programID="0" offset="0">
        <phase duration="42" state="GGGGgrrrrrGGGGgrrrrr"/>
        <phase duration="3"  state="yyyyyrrrrryyyyyrrrrr"/>
        <phase duration="42" state="rrrrrGGGGgrrrrrGGGGg"/>
        <phase duration="3"  state="rrrrryyyyyrrrrryyyyy"/>
    </tlLogic>
    <tlLogic id="J2" type="static" programID="0" offset="0">
        <phase duration="42" state="GGGGgrrrrrGGGGgrrrrr"/>
        <phase duration="3"  state="yyyyyrrrrryyyyyrrrrr"/>
        <phase duration="42" state="rrrrrGGGGgrrrrrGGGGg"/>
        <phase duration="3"  state="rrrrryyyyyrrrrryyyyy"/>
    </tlLogic>
    <tlLogic id="J3" type="static" programID="0" offset="0">
        <phase duration="42" state="GGGGgrrrrrGGGGgrrrrr"/>
        <phase duration="3"  state="yyyyyrrrrryyyyyrrrrr"/>
        <phase duration="42" state="rrrrrGGGGgrrrrrGGGGg"/>
        <phase duration="3"  state="rrrrryyyyyrrrrryyyyy"/>
    </tlLogic>
    <tlLogic id="J4" type="static" programID="0" offset="0">
        <phase duration="42" state="GGGGgrrrrrGGGGgrrrrr"/>
        <phase duration="3"  state="yyyyyrrrrryyyyyrrrrr"/>
        <phase duration="42" state="rrrrrGGGGgrrrrrGGGGg"/>
        <phase duration="3"  state="rrrrryyyyyrrrrryyyyy"/>
    </tlLogic>

<junction id="E1" type="priority" x="1100.00" y="300.00" incLanes="J2E1_0 J2E1_1 J2E1_2" intLanes=":E1_0_0" shape="1100.00,300.00 1100.00,290.40 1100.00,300.00">
        <request index="0" response="0" foes="0" cont="0"/>
    </junction>
    <junction id="E2" type="priority" x="1100.00" y="800.00" incLanes="J4E2_0 J4E2_1 J4E2_2" intLanes=":E2_0_0" shape="1100.00,800.00 1100.00,790.40 1100.00,800.00">
        <request index="0" response="0" foes="0" cont="0"/>
    </junction>
    <junction id="J1" type="traffic_light" x="300.00" y="300.00" incLanes="J3J1_0 J3J1_1 J3J1_2 J2J1_0 J2J1_1 J2J1_2 S1J1_0 S1J1_1 S1J1_2 W1J1_0 W1J1_1 W1J1_2" intLanes=":J1_0_0 :J1_1_0 :J1_1_1 :J1_1_2 :J1_20_0 :J1_5_0 :J1_6_0 :J1_6_1 :J1_6_2 :J1_21_0 :J1_10_0 :J1_11_0 :J1_11_1 :J1_11_2 :J1_22_0 :J1_15_0 :J1_16_0 :J1_16_1 :J1_16_2 :J1_23_0" shape="290.40,313.60 309.60,313.60 310.04,311.38 310.60,310.60 311.38,310.04 312.38,309.71 313.60,309.60 313.60,290.40 311.38,289.96 310.60,289.40 310.04,288.62 309.71,287.62 309.60,286.40 290.40,286.40 289.96,288.62 289.40,289.40 288.62,289.96 287.62,290.29 286.40,290.40 286.40,309.60 288.62,310.04 289.40,310.60 289.96,311.38 290.29,312.38">
        <request index="0"  response="00000000000000000000" foes="00000000000111000000" cont="0"/>
        <request index="1"  response="10000000000000000000" foes="11111100001111000000" cont="0"/>
        <request index="2"  response="10000000000000000000" foes="11111100001111000000" cont="0"/>
        <request index="3"  response="10000000001000000000" foes="11111100001111000000" cont="0"/>
        <request index="4"  response="10000011101000000000" foes="11110011101111000000" cont="1"/>
        <request index="5"  response="00000011100000000000" foes="00000011100000000000" cont="0"/>
        <request index="6"  response="00000111100000011111" foes="10000111100000011111" cont="0"/>
        <request index="7"  response="00000111100000011111" foes="10000111100000011111" cont="0"/>
        <request index="8"  response="00000111100000011111" foes="10000111100000011111" cont="0"/>