<?xml version="1.0" encoding="UTF-8"?>

<!-- generated on 2026-07-18T17:02:37.392790+07:00 by Eclipse SUMO netconvert 1.27.1
<netconvertConfiguration xmlns:xsi="http://www.w3.org/2001/XMLSchema-instance" xsi:noNamespaceSchemaLocation="http://sumo.dlr.de/xsd/netconvertConfiguration.xsd">

    <input>
        <node-files value="intersection.nod.xml"/>
        <edge-files value="intersection.edg.xml"/>
    </input>

    <output>
        <output-file value="intersection.net.xml"/>
    </output>

</netconvertConfiguration>
-->

<net version="1.20" junctionCornerDetail="5" limitTurnSpeed="5.50" xmlns:xsi="http://www.w3.org/2001/XMLSchema-instance" xsi:noNamespaceSchemaLocation="http://sumo.dlr.de/xsd/net_file.xsd">

    <location netOffset="100.00,100.00" convBoundary="0.00,0.00,320.00,320.00" origBoundary="-100.00,-100.00,220.00,220.00" projParameter="!"/>

    <edge id=":E1_0" function="internal">
        <lane id=":E1_0_0" index="0" speed="3.65" length="4.67" shape="320.00,98.40 321.20,99.20 321.60,100.00 321.20,100.80 320.00,101.60"/>
    </edge>
    <edge id=":E2_0" function="internal">
        <lane id=":E2_0_0" index="0" speed="3.65" length="4.67" shape="320.00,218.40 321.20,219.20 321.60,220.00 321.20,220.80 320.00,221.60"/>
    </edge>
    <edge id=":J1_0" function="internal">
        <lane id=":J1_0_0" index="0" speed="6.51" length="9.03" shape="95.20,110.40 94.85,107.95 93.80,106.20 92.05,105.15 89.60,104.80"/>
    </edge>
    <edge id=":J1_1" function="internal">
        <lane id=":J1_1_0" index="0" speed="13.90" length="20.80" shape="95.20,110.40 95.20,89.60"/>
        <lane id=":J1_1_1" index="1" speed="13.90" length="20.80" shape="98.40,110.40 98.40,89.60"/>
    </edge>
    <edge id=":J1_3" function="internal">
        <lane id=":J1_3_0" index="0" speed="9.26" length="5.01" shape="98.40,110.40 99.11,105.44"/>
    </edge>
    <edge id=":J1_4" function="internal">
        <lane id=":J1_4_0" index="0" speed="3.65" length="1.44" shape="98.40,110.40 99.20,109.20"/>
    </edge>
    <edge id=":J1_20" function="internal">
        <lane id=":J1_20_0" index="0" speed="9.26" length="14.34" shape="99.11,105.44 99.15,105.15 101.40,101.40 105.15,99.15 110.40,98.40"/>
    </edge>
    <edge id=":J1_21" function="internal">
        <lane id=":J1_21_0" index="0" speed="3.65" length="3.23" shape="99.20,109.20 100.00,108.80 100.80,109.20 101.60,110.40"/>
    </edge>
    <edge id=":J1_5" function="internal">
        <lane id=":J1_5_0" index="0" speed="6.51" length="9.03" shape="110.40,104.80 107.95,105.15 106.20,106.20 105.15,107.95 104.80,110.40"/>
    </edge>
    <edge id=":J1_6" function="internal">
        <lane id=":J1_6_0" index="0" speed="13.90" length="20.80" shape="110.40,104.80 89.60,104.80"/>
        <lane id=":J1_6_1" index="1" speed="13.90" length="20.80" shape="110.40,101.60 89.60,101.60"/>
    </edge>
    <edge id=":J1_8" function="internal">
        <lane id=":J1_8_0" index="0" speed="9.26" length="5.01" shape="110.40,101.60 105.44,100.89"/>
    </edge>
    <edge id=":J1_9" function="internal">
        <lane id=":J1_9_0" index="0" speed="3.65" length="1.44" shape="110.40,101.60 109.20,100.80"/>
    </edge>
    <edge id=":J1_22" function="internal">
        <lane id=":J1_22_0" index="0" speed="9.26" length="14.34" shape="105.44,100.89 105.15,100.85 101.40,98.60 99.15,94.85 98.40,89.60"/>
    </edge>
    <edge id=":J1_23" function="internal">
        <lane id=":J1_23_0" index="0" speed="3.65" length="3.23" shape="109.20,100.80 108.80,100.00 109.20,99.20 110.40,98.40"/>
    </edge>
    <edge id=":J1_10" function="internal">
        <lane id=":J1_10_0" index="0" speed="6.51" length="9.03" shape="104.80,89.60 105.15,92.05 106.20,93.80 107.95,94.85 110.40,95.20"/>
    </edge>
    <edge id=":J1_11" function="internal">
        <lane id=":J1_11_0" index="0" speed="13.90" length="20.80" shape="104.80,89.60 104.80,110.40"/>
        <lane id=":J1_11_1" index="1" speed="13.90" length="20.80" shape="101.60,89.60 101.60,110.40"/>
    </edge>
    <edge id=":J1_13" function="internal">
        <lane id=":J1_13_0" index="0" speed="9.26" length="5.01" shape="101.60,89.60 100.89,94.56"/>
    </edge>
    <edge id=":J1_14" function="internal">
        <lane id=":J1_14_0" index="0" speed="3.65" length="1.44" shape="101.60,89.60 100.80,90.80"/>
    </edge>
    <edge id=":J1_24" function="internal">
        <lane id=":J1_24_0" index="0" speed="9.26" length="14.34" shape="100.89,94.56 100.85,94.85 98.60,98.60 94.85,100.85 89.60,101.60"/>
    </edge>
    <edge id=":J1_25" function="internal">
        <lane id=":J1_25_0" index="0" speed="3.65" length="3.23" shape="100.80,90.80 100.00,91.20 99.20,90.80 98.40,89.60"/>
    </edge>
    <edge id=":J1_15" function="internal">
        <lane id=":J1_15_0" index="0" speed="6.51" length="9.03" shape="89.60,95.20 92.05,94.85 93.80,93.80 94.85,92.05 95.20,89.60"/>
    </edge>
    <edge id=":J1_16" function="internal">
        <lane id=":J1_16_0" index="0" speed="13.90" length="20.80" shape="89.60,95.20 110.40,95.20"/>
        <lane id=":J1_16_1" index="1" speed="13.90" length="20.80" shape="89.60,98.40 110.40,98.40"/>
    </edge>
    <edge id=":J1_18" function="internal">
        <lane id=":J1_18_0" index="0" speed="9.26" length="5.01" shape="89.60,98.40 94.56,99.11"/>
    </edge>
    <edge id=":J1_19" function="internal">
        <lane id=":J1_19_0" index="0" speed="3.65" length="1.44" shape="89.60,98.40 90.80,99.20"/>
    </edge>
    <edge id=":J1_26" function="internal">
        <lane id=":J1_26_0" index="0" speed="9.26" length="14.34" shape="94.56,99.11 94.85,99.15 98.60,101.40 100.85,105.15 101.60,110.40"/>
    </edge>
    <edge id=":J1_27" function="internal">
        <lane id=":J1_27_0" index="0" speed="3.65" length="3.23" shape="90.80,99.20 91.20,100.00 90.80,100.80 89.60,101.60"/>
    </edge>
    <edge id=":J2_0" function="internal">
        <lane id=":J2_0_0" index="0" speed="6.51" length="9.03" shape="215.20,110.40 214.85,107.95 213.80,106.20 212.05,105.15 209.60,104.80"/>
    </edge>
    <edge id=":J2_1" function="internal">
        <lane id=":J2_1_0" index="0" speed="13.90" length="20.80" shape="215.20,110.40 215.20,89.60"/>
        <lane id=":J2_1_1" index="1" speed="13.90" length="20.80" shape="218.40,110.40 218.40,89.60"/>
    </edge>
    <edge id=":J2_3" function="internal">
        <lane id=":J2_3_0" index="0" speed="9.26" length="5.01" shape="218.40,110.40 219.11,105.44"/>
    </edge>
    <edge id=":J2_4" function="internal">
        <lane id=":J2_4_0" index="0" speed="3.65" length="1.44" shape="218.40,110.40 219.20,109.20"/>
    </edge>
    <edge id=":J2_20" function="internal">
        <lane id=":J2_20_0" index="0" speed="9.26" length="14.34" shape="219.11,105.44 219.15,105.15 221.40,101.40 225.15,99.15 230.40,98.40"/>
    </edge>
    <edge id=":J2_21" function="internal">
        <lane id=":J2_21_0" index="0" speed="3.65" length="3.23" shape="219.20,109.20 220.00,108.80 220.80,109.20 221.60,110.40"/>
    </edge>
    <edge id=":J2_5" function="internal">
        <lane id=":J2_5_0" index="0" speed="6.51" length="9.03" shape="230.40,104.80 227.95,105.15 226.20,106.20 225.15,107.95 224.80,110.40"/>
    </edge>
    <edge id=":J2_6" function="internal">
        <lane id=":J2_6_0" index="0" speed="13.90" length="20.80" shape="230.40,104.80 209.60,104.80"/>
        <lane id=":J2_6_1" index="1" speed="13.90" length="20.80" shape="230.40,101.60 209.60,101.60"/>
    </edge>
    <edge id=":J2_8" function="internal">
        <lane id=":J2_8_0" index="0" speed="9.26" length="5.01" shape="230.40,101.60 225.44,100.89"/>
    </edge>
    <edge id=":J2_9" function="internal">
        <lane id=":J2_9_0" index="0" speed="3.65" length="1.44" shape="230.40,101.60 229.20,100.80"/>
    </edge>
    <edge id=":J2_22" function="internal">
        <lane id=":J2_22_0" index="0" speed="9.26" length="14.34" shape="225.44,100.89 225.15,100.85 221.40,98.60 219.15,94.85 218.40,89.60"/>
    </edge>
    <edge id=":J2_23" function="internal">
        <lane id=":J2_23_0" index="0" speed="3.65" length="3.23" shape="229.20,100.80 228.80,100.00 229.20,99.20 230.40,98.40"/>
    </edge>
    <edge id=":J2_10" function="internal">
        <lane id=":J2_10_0" index="0" speed="6.51" length="9.03" shape="224.80,89.60 225.15,92.05 226.20,93.80 227.95,94.85 230.40,95.20"/>
    </edge>
    <edge id=":J2_11" function="internal">
        <lane id=":J2_11_0" index="0" speed="13.90" length="20.80" shape="224.80,89.60 224.80,110.40"/>
        <lane id=":J2_11_1" index="1" speed="13.90" length="20.80" shape="221.60,89.60 221.60,110.40"/>
    </edge>
    <edge id=":J2_13" function="internal">
        <lane id=":J2_13_0" index="0" speed="9.26" length="5.01" shape="221.60,89.60 220.89,94.56"/>
    </edge>
    <edge id=":J2_14" function="internal">
        <lane id=":J2_14_0" index="0" speed="3.65" length="1.44" shape="221.60,89.60 220.80,90.80"/>
    </edge>
    <edge id=":J2_24" function="internal">
        <lane id=":J2_24_0" index="0" speed="9.26" length="14.34" shape="220.89,94.56 220.85,94.85 218.60,98.60 214.85,100.85 209.60,101.60"/>
    </edge>
    <edge id=":J2_25" function="internal">
        <lane id=":J2_25_0" index="0" speed="3.65" length="3.23" shape="220.80,90.80 220.00,91.20 219.20,90.80 218.40,89.60"/>
    </edge>
    <edge id=":J2_15" function="internal">
        <lane id=":J2_15_0" index="0" speed="6.51" length="9.03" shape="209.60,95.20 212.05,94.85 213.80,93.80 214.85,92.05 215.20,89.60"/>
    </edge>
    <edge id=":J2_16" function="internal">
        <lane id=":J2_16_0" index="0" speed="13.90" length="20.80" shape="209.60,95.20 230.40,95.20"/>
        <lane id=":J2_16_1" index="1" speed="13.90" length="20.80" shape="209.60,98.40 230.40,98.40"/>
    </edge>
    <edge id=":J2_18" function="internal">
        <lane id=":J2_18_0" index="0" speed="9.26" length="5.01" shape="209.60,98.40 214.56,99.11"/>
    </edge>
    <edge id=":J2_19" function="internal">
        <lane id=":J2_19_0" index="0" speed="3.65" length="1.44" shape="209.60,98.40 210.80,99.20"/>
    </edge>
    <edge id=":J2_26" function="internal">
        <lane id=":J2_26_0" index="0" speed="9.26" length="14.34" shape="214.56,99.11 214.85,99.15 218.60,101.40 220.85,105.15 221.60,110.40"/>
    </edge>
    <edge id=":J2_27" function="internal">
        <lane id=":J2_27_0" index="0" speed="3.65" length="3.23" shape="210.80,99.20 211.20,100.00 210.80,100.80 209.60,101.60"/>
    </edge>
    <edge id=":J3_0" function="internal">
        <lane id=":J3_0_0" index="0" speed="6.51" length="9.03" shape="95.20,230.40 94.85,227.95 93.80,226.20 92.05,225.15 89.60,224.80"/>
    </edge>
    <edge id=":J3_1" function="internal">
        <lane id=":J3_1_0" index="0" speed="13.90" length="20.80" shape="95.20,230.40 95.20,209.60"/>
        <lane id=":J3_1_1" index="1" speed="13.90" length="20.80" shape="98.40,230.40 98.40,209.60"/>
    </edge>
    <edge id=":J3_3" function="internal">
        <lane id=":J3_3_0" index="0" speed="9.26" length="5.01" shape="98.40,230.40 99.11,225.44"/>
    </edge>
    <edge id=":J3_4" function="internal">
        <lane id=":J3_4_0" index="0" speed="3.65" length="1.44" shape="98.40,230.40 99.20,229.20"/>
    </edge>
    <edge id=":J3_20" function="internal">
        <lane id=":J3_20_0" index="0" speed="9.26" length="14.34" shape="99.11,225.44 99.15,225.15 101.40,221.40 105.15,219.15 110.40,218.40"/>
    </edge>
    <edge id=":J3_21" function="internal">
        <lane id=":J3_21_0" index="0" speed="3.65" length="3.23" shape="99.20,229.20 100.00,228.80 100.80,229.20 101.60,230.40"/>
    </edge>
    <edge id=":J3_5" function="internal">
        <lane id=":J3_5_0" index="0" speed="6.51" length="9.03" shape="110.40,224.80 107.95,225.15 106.20,226.20 105.15,227.95 104.80,230.40"/>
    </edge>
    <edge id=":J3_6" function="internal">
        <lane id=":J3_6_0" index="0" speed="13.90" length="20.80" shape="110.40,224.80 89.60,224.80"/>
        <lane id=":J3_6_1" index="1" speed="13.90" length="20.80" shape="110.40,221.60 89.60,221.60"/>
    </edge>
    <edge id=":J3_8" function="internal">
        <lane id=":J3_8_0" index="0" speed="9.26" length="5.01" shape="110.40,221.60 105.44,220.89"/>
    </edge>
    <edge id=":J3_9" function="internal">
        <lane id=":J3_9_0" index="0" speed="3.65" length="1.44" shape="110.40,221.60 109.20,220.80"/>
    </edge>
    <edge id=":J3_22" function="internal">
        <lane id=":J3_22_0" index="0" speed="9.26" length="14.34" shape="105.44,220.89 105.15,220.85 101.40,218.60 99.15,214.85 98.40,209.60"/>
    </edge>
    <edge id=":J3_23" function="internal">
        <lane id=":J3_23_0" index="0" speed="3.65" length="3.23" shape="109.20,220.80 108.80,220.00 109.20,219.20 110.40,218.40"/>
    </edge>
    <edge id=":J3_10" function="internal">
        <lane id=":J3_10_0" index="0" speed="6.51" length="9.03" shape="104.80,209.60 105.15,212.05 106.20,213.80 107.95,214.85 110.40,215.20"/>
    </edge>
    <edge id=":J3_11" function="internal">
        <lane id=":J3_11_0" index="0" speed="13.90" length="20.80" shape="104.80,209.60 104.80,230.40"/>
        <lane id=":J3_11_1" index="1" speed="13.90" length="20.80" shape="101.60,209.60 101.60,230.40"/>
    </edge>
    <edge id=":J3_13" function="internal">
        <lane id=":J3_13_0" index="0" speed="9.26" length="5.01" shape="101.60,209.60 100.89,214.56"/>
    </edge>
    <edge id=":J3_14" function="internal">
        <lane id=":J3_14_0" index="0" speed="3.65" length="1.44" shape="101.60,209.60 100.80,210.80"/>
    </edge>
    <edge id=":J3_24" function="internal">
        <lane id=":J3_24_0" index="0" speed="9.26" length="14.34" shape="100.89,214.56 100.85,214.85 98.60,218.60 94.85,220.85 89.60,221.60"/>
    </edge>
    <edge id=":J3_25" function="internal">
        <lane id=":J3_25_0" index="0" speed="3.65" length="3.23" shape="100.80,210.80 100.00,211.20 99.20,210.80 98.40,209.60"/>
    </edge>
    <edge id=":J3_15" function="internal">
        <lane id=":J3_15_0" index="0" speed="6.51" length="9.03" shape="89.60,215.20 92.05,214.85 93.80,213.80 94.85,212.05 95.20,209.60"/>
    </edge>
    <edge id=":J3_16" function="internal">
        <lane id=":J3_16_0" index="0" speed="13.90" length="20.80" shape="89.60,215.20 110.40,215.20"/>
        <lane id=":J3_16_1" index="1" speed="13.90" length="20.80" shape="89.60,218.40 110.40,218.40"/>
    </edge>
    <edge id=":J3_18" function="internal">
        <lane id=":J3_18_0" index="0" speed="9.26" length="5.01" shape="89.60,218.40 94.56,219.11"/>
    </edge>
    <edge id=":J3_19" function="internal">
        <lane id=":J3_19_0" index="0" speed="3.65" length="1.44" shape="89.60,218.40 90.80,219.20"/>
    </edge>
    <edge id=":J3_26" function="internal">
        <lane id=":J3_26_0" index="0" speed="9.26" length="14.34" shape="94.56,219.11 94.85,219.15 98.60,221.40 100.85,225.15 101.60,230.40"/>
    </edge>
    <edge id=":J3_27" function="internal">
        <lane id=":J3_27_0" index="0" speed="3.65" length="3.23" shape="90.80,219.20 91.20,220.00 90.80,220.80 89.60,221.60"/>
    </edge>
    <edge id=":J4_0" function="internal">
        <lane id=":J4_0_0" index="0" speed="6.51" length="9.03" shape="215.20,230.40 214.85,227.95 213.80,226.20 212.05,225.15 209.60,224.80"/>
    </edge>
    <edge id=":J4_1" function="internal">
        <lane id=":J4_1_0" index="0" speed="13.90" length="20.80" shape="215.20,230.40 215.20,209.60"/>
        <lane id=":J4_1_1" index="1" speed="13.90" length="20.80" shape="218.40,230.40 218.40,209.60"/>
    </edge>
    <edge id=":J4_3" function="internal">
        <lane id=":J4_3_0" index="0" speed="9.26" length="5.01" shape="218.40,230.40 219.11,225.44"/>
    </edge>
    <edge id=":J4_4" function="internal">
        <lane id=":J4_4_0" index="0" speed="3.65" length="1.44" shape="218.40,230.40 219.20,229.20"/>
    </edge>
    <edge id=":J4_20" function="internal">
        <lane id=":J4_20_0" index="0" speed="9.26" length="14.34" shape="219.11,225.44 219.15,225.15 221.40,221.40 225.15,219.15 230.40,218.40"/>
    </edge>
    <edge id=":J4_21" function="internal">
        <lane id=":J4_21_0" index="0" speed="3.65" length="3.23" shape="219.20,229.20 220.00,228.80 220.80,229.20 221.60,230.40"/>
    </edge>
    <edge id=":J4_5" function="internal">
        <lane id=":J4_5_0" index="0" speed="6.51" length="9.03" shape="230.40,224.80 227.95,225.15 226.20,226.20 225.15,227.95 224.80,230.40"/>
    </edge>
    <edge id=":J4_6" function="internal">
        <lane id=":J4_6_0" index="0" speed="13.90" length="20.80" shape="230.40,224.80 209.60,224.80"/>
        <lane id=":J4_6_1" index="1" speed="13.90" length="20.80" shape="230.40,221.60 209.60,221.60"/>
    </edge>
    <edge id=":J4_8" function="internal">
        <lane id=":J4_8_0" index="0" speed="9.26" length="5.01" shape="230.40,221.60 225.44,220.89"/>
    </edge>
    <edge id=":J4_9" function="internal">
        <lane id=":J4_9_0" index="0" speed="3.65" length="1.44" shape="230.40,221.60 229.20,220.80"/>
    </edge>
    <edge id=":J4_22" function="internal">
        <lane id=":J4_22_0" index="0" speed="9.26" length="14.34" shape="225.44,220.89 225.15,220.85 221.40,218.60 219.15,214.85 218.40,209.60"/>
    </edge>
    <edge id=":J4_23" function="internal">
        <lane id=":J4_23_0" index="0" speed="3.65" length="3.23" shape="229.20,220.80 228.80,220.00 229.20,219.20 230.40,218.40"/>
    </edge>
    <edge id=":J4_10" function="internal">
        <lane id=":J4_10_0" index="0" speed="6.51" length="9.03" shape="224.80,209.60 225.15,212.05 226.20,213.80 227.95,214.85 230.40,215.20"/>
    </edge>
    <edge id=":J4_11" function="internal">
        <lane id=":J4_11_0" index="0" speed="13.90" length="20.80" shape="224.80,209.60 224.80,230.40"/>
        <lane id=":J4_11_1" index="1" speed="13.90" length="20.80" shape="221.60,209.60 221.60,230.40"/>
    </edge>
    <edge id=":J4_13" function="internal">
        <lane id=":J4_13_0" index="0" speed="9.26" length="5.01" shape="221.60,209.60 220.89,214.56"/>
    </edge>
    <edge id=":J4_14" function="internal">
        <lane id=":J4_14_0" index="0" speed="3.65" length="1.44" shape="221.60,209.60 220.80,210.80"/>
    </edge>
    <edge id=":J4_24" function="internal">
        <lane id=":J4_24_0" index="0" speed="9.26" length="14.34" shape="220.89,214.56 220.85,214.85 218.60,218.60 214.85,220.85 209.60,221.60"/>
    </edge>
    <edge id=":J4_25" function="internal">
        <lane id=":J4_25_0" index="0" speed="3.65" length="3.23" shape="220.80,210.80 220.00,211.20 219.20,210.80 218.40,209.60"/>
    </edge>
    <edge id=":J4_15" function="internal">
        <lane id=":J4_15_0" index="0" speed="6.51" length="9.03" shape="209.60,215.20 212.05,214.85 213.80,213.80 214.85,212.05 215.20,209.60"/>
    </edge>
    <edge id=":J4_16" function="internal">
        <lane id=":J4_16_0" index="0" speed="13.90" length="20.80" shape="209.60,215.20 230.40,215.20"/>
        <lane id=":J4_16_1" index="1" speed="13.90" length="20.80" shape="209.60,218.40 230.40,218.40"/>
    </edge>
    <edge id=":J4_18" function="internal">
        <lane id=":J4_18_0" index="0" speed="9.26" length="5.01" shape="209.60,218.40 214.56,219.11"/>
    </edge>
    <edge id=":J4_19" function="internal">
        <lane id=":J4_19_0" index="0" speed="3.65" length="1.44" shape="209.60,218.40 210.80,219.20"/>
    </edge>
    <edge id=":J4_26" function="internal">
        <lane id=":J4_26_0" index="0" speed="9.26" length="14.34" shape="214.56,219.11 214.85,219.15 218.60,221.40 220.85,225.15 221.60,230.40"/>
    </edge>
    <edge id=":J4_27" function="internal">
        <lane id=":J4_27_0" index="0" speed="3.65" length="3.23" shape="210.80,219.20 211.20,220.00 210.80,220.80 209.60,221.60"/>
    </edge>
    <edge id=":N1_0" function="internal">
        <lane id=":N1_0_0" index="0" speed="3.65" length="4.67" shape="101.60,320.00 100.80,321.20 100.00,321.60 99.20,321.20 98.40,320.00"/>
    </edge>
    <edge id=":N2_0" function="internal">
        <lane id=":N2_0_0" index="0" speed="3.65" length="4.67" shape="221.60,320.00 220.80,321.20 220.00,321.60 219.20,321.20 218.40,320.00"/>
    </edge>
    <edge id=":S1_0" function="internal">
        <lane id=":S1_0_0" index="0" speed="3.65" length="4.67" shape="98.40,0.00 99.20,-1.20 100.00,-1.60 100.80,-1.20 101.60,0.00"/>
    </edge>
    <edge id=":S2_0" function="internal">
        <lane id=":S2_0_0" index="0" speed="3.65" length="4.67" shape="218.40,0.00 219.20,-1.20 220.00,-1.60 220.80,-1.20 221.60,0.00"/>
    </edge>
    <edge id=":W1_0" function="internal">
        <lane id=":W1_0_0" index="0" speed="3.65" length="4.67" shape="0.00,101.60 -1.20,100.80 -1.60,100.00 -1.20,99.20 0.00,98.40"/>
    </edge>
    <edge id=":W2_0" function="internal">
        <lane id=":W2_0_0" index="0" speed="3.65" length="4.67" shape="0.00,221.60 -1.20,220.80 -1.60,220.00 -1.20,219.20 0.00,218.40"/>
    </edge>

    <edge id="E1J2" from="E1" to="J2" priority="-1">
        <lane id="E1J2_0" index="0" speed="13.90" length="89.60" shape="320.00,104.80 230.40,104.80"/>
        <lane id="E1J2_1" index="1" speed="13.90" length="89.60" shape="320.00,101.60 230.40,101.60"/>
    </edge>
    <edge id="E2J4" from="E2" to="J4" priority="-1">
        <lane id="E2J4_0" index="0" speed="13.90" length="89.60" shape="320.00,224.80 230.40,224.80"/>
        <lane id="E2J4_1" index="1" speed="13.90" length="89.60" shape="320.00,221.60 230.40,221.60"/>
    </edge>
    <edge id="J1J2" from="J1" to="J2" priority="-1">
        <lane id="J1J2_0" index="0" speed="13.90" length="99.20" shape="110.40,95.20 209.60,95.20"/>
        <lane id="J1J2_1" index="1" speed="13.90" length="99.20" shape="110.40,98.40 209.60,98.40"/>
    </edge>
    <edge id="J1J3" from="J1" to="J3" priority="-1">
        <lane id="J1J3_0" index="0" speed="13.90" length="99.20" shape="104.80,110.40 104.80,209.60"/>
        <lane id="J1J3_1" index="1" speed="13.90" length="99.20" shape="101.60,110.40 101.60,209.60"/>
    </edge>
    <edge id="J1S1" from="J1" to="S1" priority="-1">
        <lane id="J1S1_0" index="0" speed="13.90" length="89.60" shape="95.20,89.60 95.20,0.00"/>
        <lane id="J1S1_1" index="1" speed="13.90" length="89.60" shape="98.40,89.60 98.40,0.00"/>
    </edge>
    <edge id="J1W1" from="J1" to="W1" priority="-1">
        <lane id="J1W1_0" index="0" speed="13.90" length="89.60" shape="89.60,104.80 0.00,104.80"/>
        <lane id="J1W1_1" index="1" speed="13.90" length="89.60" shape="89.60,101.60 0.00,101.60"/>
    </edge>
    <edge id="J2E1" from="J2" to="E1" priority="-1">
        <lane id="J2E1_0" index="0" speed="13.90" length="89.60" shape="230.40,95.20 320.00,95.20"/>
        <lane id="J2E1_1" index="1" speed="13.90" length="89.60" shape="230.40,98.40 320.00,98.40"/>
    </edge>
    <edge id="J2J1" from="J2" to="J1" priority="-1">
        <lane id="J2J1_0" index="0" speed="13.90" length="99.20" shape="209.60,104.80 110.40,104.80"/>
        <lane id="J2J1_1" index="1" speed="13.90" length="99.20" shape="209.60,101.60 110.40,101.60"/>
    </edge>
    <edge id="J2J4" from="J2" to="J4" priority="-1">
        <lane id="J2J4_0" index="0" speed="13.90" length="99.20" shape="224.80,110.40 224.80,209.60"/>
        <lane id="J2J4_1" index="1" speed="13.90" length="99.20" shape="221.60,110.40 221.60,209.60"/>
    </edge>
    <edge id="J2S2" from="J2" to="S2" priority="-1">
        <lane id="J2S2_0" index="0" speed="13.90" length="89.60" shape="215.20,89.60 215.20,0.00"/>
        <lane id="J2S2_1" index="1" speed="13.90" length="89.60" shape="218.40,89.60 218.40,0.00"/>
    </edge>
    <edge id="J3J1" from="J3" to="J1" priority="-1">
        <lane id="J3J1_0" index="0" speed="13.90" length="99.20" shape="95.20,209.60 95.20,110.40"/>
        <lane id="J3J1_1" index="1" speed="13.90" length="99.20" shape="98.40,209.60 98.40,110.40"/>
    </edge>
    <edge id="J3J4" from="J3" to="J4" priority="-1">
        <lane id="J3J4_0" index="0" speed="13.90" length="99.20" shape="110.40,215.20 209.60,215.20"/>
        <lane id="J3J4_1" index="1" speed="13.90" length="99.20" shape="110.40,218.40 209.60,218.40"/>
    </edge>
    <edge id="J3N1" from="J3" to="N1" priority="-1">
        <lane id="J3N1_0" index="0" speed="13.90" length="89.60" shape="104.80,230.40 104.80,320.00"/>
        <lane id="J3N1_1" index="1" speed="13.90" length="89.60" shape="101.60,230.40 101.60,320.00"/>
    </edge>
    <edge id="J3W2" from="J3" to="W2" priority="-1">
        <lane id="J3W2_0" index="0" speed="13.90" length="89.60" shape="89.60,224.80 0.00,224.80"/>
        <lane id="J3W2_1" index="1" speed="13.90" length="89.60" shape="89.60,221.60 0.00,221.60"/>
    </edge>
    <edge id="J4E2" from="J4" to="E2" priority="-1">
        <lane id="J4E2_0" index="0" speed="13.90" length="89.60" shape="230.40,215.20 320.00,215.20"/>
        <lane id="J4E2_1" index="1" speed="13.90" length="89.60" shape="230.40,218.40 320.00,218.40"/>
    </edge>
    <edge id="J4J2" from="J4" to="J2" priority="-1">
        <lane id="J4J2_0" index="0" speed="13.90" length="99.20" shape="215.20,209.60 215.20,110.40"/>
        <lane id="J4J2_1" index="1" speed="13.90" length="99.20" shape="218.40,209.60 218.40,110.40"/>
    </edge>
    <edge id="J4J3" from="J4" to="J3" priority="-1">
        <lane id="J4J3_0" index="0" speed="13.90" length="99.20" shape="209.60,224.80 110.40,224.80"/>
        <lane id="J4J3_1" index="1" speed="13.90" length="99.20" shape="209.60,221.60 110.40,221.60"/>
    </edge>
    <edge id="J4N2" from="J4" to="N2" priority="-1">
        <lane id="J4N2_0" index="0" speed="13.90" length="89.60" shape="224.80,230.40 224.80,320.00"/>
        <lane id="J4N2_1" index="1" speed="13.90" length="89.60" shape="221.60,230.40 221.60,320.00"/>
    </edge>
    <edge id="N1J3" from="N1" to="J3" priority="-1">
        <lane id="N1J3_0" index="0" speed="13.90" length="89.60" shape="95.20,320.00 95.20,230.40"/>
        <lane id="N1J3_1" index="1" speed="13.90" length="89.60" shape="98.40,320.00 98.40,230.40"/>
    </edge>
    <edge id="N2J4" from="N2" to="J4" priority="-1">
        <lane id="N2J4_0" index="0" speed="13.90" length="89.60" shape="215.20,320.00 215.20,230.40"/>
        <lane id="N2J4_1" index="1" speed="13.90" length="89.60" shape="218.40,320.00 218.40,230.40"/>
    </edge>
    <edge id="S1J1" from="S1" to="J1" priority="-1">
        <lane id="S1J1_0" index="0" speed="13.90" length="89.60" shape="104.80,0.00 104.80,89.60"/>
        <lane id="S1J1_1" index="1" speed="13.90" length="89.60" shape="101.60,0.00 101.60,89.60"/>
    </edge>
    <edge id="S2J2" from="S2" to="J2" priority="-1">
        <lane id="S2J2_0" index="0" speed="13.90" length="89.60" shape="224.80,0.00 224.80,89.60"/>
        <lane id="S2J2_1" index="1" speed="13.90" length="89.60" shape="221.60,0.00 221.60,89.60"/>
    </edge>
    <edge id="W1J1" from="W1" to="J1" priority="-1">
        <lane id="W1J1_0" index="0" speed="13.90" length="89.60" shape="0.00,95.20 89.60,95.20"/>
        <lane id="W1J1_1" index="1" speed="13.90" length="89.60" shape="0.00,98.40 89.60,98.40"/>
    </edge>
    <edge id="W2J3" from="W2" to="J3" priority="-1">
        <lane id="W2J3_0" index="0" speed="13.90" length="89.60" shape="0.00,215.20 89.60,215.20"/>
        <lane id="W2J3_1" index="1" speed="13.90" length="89.60" shape="0.00,218.40 89.60,218.40"/>
    </edge>

    <tlLogic id="J1" type="static" programID="0" offset="0">
        <phase duration="42" state="GGGggrrrrrGGGggrrrrr"/>
        <phase duration="3"  state="yyyyyrrrrryyyyyrrrrr"/>
        <phase duration="42" state="rrrrrGGGggrrrrrGGGgg"/>
        <phase duration="3"  state="rrrrryyyyyrrrrryyyyy"/>
    </tlLogic>
    <tlLogic id="J2" type="static" programID="0" offset="0">
        <phase duration="42" state="GGGggrrrrrGGGggrrrrr"/>
        <phase duration="3"  state="yyyyyrrrrryyyyyrrrrr"/>
        <phase duration="42" state="rrrrrGGGggrrrrrGGGgg"/>
        <phase duration="3"  state="rrrrryyyyyrrrrryyyyy"/>
    </tlLogic>
    <tlLogic id="J3" type="static" programID="0" offset="0">
        <phase duration="42" state="GGGggrrrrrGGGggrrrrr"/>
        <phase duration="3"  state="yyyyyrrrrryyyyyrrrrr"/>
        <phase duration="42" state="rrrrrGGGggrrrrrGGGgg"/>
        <phase duration="3"  state="rrrrryyyyyrrrrryyyyy"/>
    </tlLogic>
    <tlLogic id="J4" type="static" programID="0" offset="0">
        <phase duration="42" state="GGGggrrrrrGGGggrrrrr"/>
        <phase duration="3"  state="yyyyyrrrrryyyyyrrrrr"/>
        <phase duration="42" state="rrrrrGGGggrrrrrGGGgg"/>
        <phase duration="3"  state="rrrrryyyyyrrrrryyyyy"/>
    </tlLogic>

    <junction id="E1" type="priority" x="320.00" y="100.00" incLanes="J2E1_0 J2E1_1" intLanes=":E1_0_0" shape="320.00,100.00 320.00,93.60 320.00,100.00">
        <request index="0" response="0" foes="0" cont="0"/>
    </junction>
    <junction id="E2" type="priority" x="320.00" y="220.00" incLanes="J4E2_0 J4E2_1" intLanes=":E2_0_0" shape="320.00,220.00 320.00,213.60 320.00,220.00">
        <request index="0" response="0" foes="0" cont="0"/>
    </junction>
    <junction id="J1" type="traffic_light" x="100.00" y="100.00" incLanes="J3J1_0 J3J1_1 J2J1_0 J2J1_1 S1J1_0 S1J1_1 W1J1_0 W1J1_1" intLanes=":J1_0_0 :J1_1_0 :J1_1_1 :J1_20_0 :J1_21_0 :J1_5_0 :J1_6_0 :J1_6_1 :J1_22_0 :J1_23_0 :J1_10_0 :J1_11_0 :J1_11_1 :J1_24_0 :J1_25_0 :J1_15_0 :J1_16_0 :J1_16_1 :J1_26_0 :J1_27_0" shape="93.60,110.40 106.40,110.40 106.84,108.18 107.40,107.40 108.18,106.84 109.18,106.51 110.40,106.40 110.40,93.60 108.18,93.16 107.40,92.60 106.84,91.82 106.51,90.82 106.40,89.60 93.60,89.60 93.16,91.82 92.60,92.60 91.82,93.16 90.82,93.49 89.60,93.60 89.60,106.40 91.82,106.84 92.60,107.40 93.16,108.18 93.49,109.18">
        <request index="0"  response="00000000000000000000" foes="00000000000011000000" cont="0"/>
        <request index="1"  response="01000000000000000000" foes="01111110000111000000" cont="0"/>
        <request index="2"  response="01000000000100000000" foes="01111110000111000000" cont="0"/>